Version 4
SHEET 1 1556 680
WIRE 32 -288 32 -336
WIRE -96 -272 -96 -336
WIRE -192 -192 -192 -208
WIRE -96 -176 -96 -240
WIRE 32 -176 32 -208
WIRE -192 -144 -192 -160
WIRE 320 -48 256 -48
WIRE 480 -48 400 -48
WIRE 592 -48 480 -48
WIRE 752 -48 672 -48
WIRE 976 -48 752 -48
WIRE -352 -16 -352 -64
WIRE -352 -16 -416 -16
WIRE -304 -16 -352 -16
WIRE 752 -16 752 -48
WIRE 1008 16 944 16
WIRE 944 32 944 16
WIRE -416 48 -416 -16
WIRE 720 48 672 48
WIRE 1008 48 1008 16
WIRE 720 64 720 48
WIRE 752 64 720 64
WIRE 784 64 752 64
WIRE 784 80 784 64
WIRE 672 112 640 112
WIRE 944 128 944 112
WIRE 976 128 944 128
WIRE 1008 128 1008 112
WIRE 1008 128 976 128
WIRE -352 144 -352 -16
WIRE -320 144 -352 144
WIRE 16 144 -192 144
WIRE 976 144 976 128
WIRE 752 160 720 160
WIRE 784 160 784 144
WIRE 784 160 752 160
WIRE -416 176 -416 112
WIRE -384 176 -416 176
WIRE -320 176 -384 176
WIRE -144 176 -192 176
WIRE -48 176 -64 176
WIRE 16 176 16 144
WIRE 720 176 720 160
WIRE 720 176 672 176
WIRE -320 208 -336 208
WIRE -176 208 -192 208
WIRE -384 240 -416 240
WIRE -320 240 -384 240
WIRE -144 240 -192 240
WIRE -48 240 -48 176
WIRE 16 240 16 208
WIRE 16 240 -48 240
WIRE 480 240 480 -48
WIRE 16 256 16 240
WIRE 752 272 752 240
WIRE 752 272 592 272
WIRE 976 272 976 208
WIRE 976 272 752 272
WIRE 1216 272 976 272
WIRE 1376 272 1296 272
WIRE 1488 272 1376 272
WIRE 752 304 752 272
WIRE 1008 336 944 336
WIRE -144 352 -144 240
WIRE -112 352 -144 352
WIRE 48 352 -32 352
WIRE 944 352 944 336
WIRE 720 368 672 368
WIRE 1008 368 1008 336
WIRE 720 384 720 368
WIRE 752 384 720 384
WIRE 784 384 752 384
WIRE 784 400 784 384
WIRE 1376 400 1376 272
WIRE 672 432 640 432
WIRE 944 448 944 432
WIRE 976 448 944 448
WIRE 1008 448 1008 432
WIRE 1008 448 976 448
WIRE 976 464 976 448
WIRE 752 480 720 480
WIRE 784 480 784 464
WIRE 784 480 752 480
WIRE -336 496 -336 208
WIRE -112 496 -336 496
WIRE -32 496 -48 496
WIRE 48 496 -32 496
WIRE 720 496 720 480
WIRE 720 496 672 496
WIRE 48 576 -32 576
WIRE 480 592 480 304
WIRE 480 592 256 592
WIRE 752 592 752 560
WIRE 752 592 480 592
WIRE 976 592 976 528
WIRE 976 592 752 592
WIRE 1376 592 1376 464
WIRE 1376 592 976 592
WIRE 1488 592 1376 592
WIRE 480 624 480 592
FLAG 640 112 GH
FLAG 592 272 HS
FLAG 480 624 0
FLAG -192 -208 +15V
FLAG 16 256 0
FLAG -192 -144 0
FLAG -176 208 0
FLAG -352 -64 +15V
FLAG -384 176 HB
FLAG -384 240 HS
FLAG 48 352 GL
FLAG 48 496 GH
FLAG 16 144 PWM
FLAG -304 48 0
FLAG 1488 272 out+
FLAG 1488 592 out-
FLAG 256 -48 in+
FLAG 256 592 in-
FLAG 32 -336 out+
FLAG 32 -176 out-
FLAG -96 -336 in+
FLAG -96 -176 in-
FLAG 640 432 GL
FLAG -32 432 0
FLAG 48 576 HS
SYMBOL MiniSyms4\\voltage- 16 192 R0
WINDOW 3 -17 -49 VRight 0
WINDOW 123 0 0 Left 0
WINDOW 39 7 17 Left 0
SYMATTR Value PULSE(0 5 1u 1n 1n 7.2u 30u)
SYMATTR InstName PWM2
SYMBOL MiniSyms4\\voltage- -192 -176 R0
WINDOW 123 0 0 Left 0
WINDOW 39 7 17 Left 0
SYMATTR InstName V1
SYMATTR Value 15V
SYMBOL res 16 -304 R0
SYMATTR InstName Ro
SYMATTR Value 2
SYMBOL MiniSyms4\\voltage- -96 -256 R0
WINDOW 123 0 0 Left 0
WINDOW 39 7 17 Left 0
SYMATTR InstName V2
SYMATTR Value 60
SYMATTR SpiceLine Rser=100m
SYMBOL cap -400 240 R180
WINDOW 0 24 56 Left 2
WINDOW 3 24 8 Left 2
SYMATTR InstName C1
SYMATTR Value 100n
SYMBOL AutoGenerated\\lm5104 -256 192 R0
SYMATTR InstName U1
SYMBOL res -16 480 R90
WINDOW 0 0 56 VBottom 2
WINDOW 3 32 56 VTop 2
SYMATTR InstName Rg1
SYMATTR Value 4.7
SYMBOL res -48 160 R90
WINDOW 0 0 56 VBottom 2
WINDOW 3 32 56 VTop 2
SYMATTR InstName R2
SYMATTR Value 100k
SYMBOL diode -432 48 R0
SYMATTR InstName D1
SYMATTR Value 1N4148
SYMBOL cap -320 -16 R0
SYMATTR InstName C2
SYMATTR Value 10u
SYMBOL ind 1200 288 R270
WINDOW 0 32 56 VTop 2
WINDOW 3 5 56 VBottom 2
SYMATTR InstName Lo
SYMATTR Value 10u
SYMATTR SpiceLine Rser=200m Rpar=1Meg
SYMBOL polcap 1360 400 R0
WINDOW 3 24 56 Left 2
SYMATTR InstName Co
SYMATTR Value 470u
SYMATTR Description Capacitor
SYMATTR Type cap
SYMATTR SpiceLine V=63 Irms=800m Rser=0.081 Lser=0 Rpar=1Meg mfg="Nichicon" pn="UPR1J471MRH" type="Al electrolytic"
SYMBOL EXTRA\\IRF\\NMOSFET\\irfp260n 720 112 R0
SYMATTR InstName Q1
SYMBOL ind 304 -32 R270
WINDOW 0 32 56 VTop 2
WINDOW 3 5 56 VBottom 2
SYMATTR InstName Li
SYMATTR Value 10u
SYMATTR SpiceLine Rser=200m Rpar=1Meg
SYMBOL polcap 464 240 R0
WINDOW 3 24 56 Left 2
SYMATTR InstName Ci
SYMATTR Value 470u
SYMATTR Description Capacitor
SYMATTR Type cap
SYMATTR SpiceLine V=100 Irms=210m Rser=0.37 Lser=0 Rpar=1Meg mfg="Nichicon" pn="UPR2A470MPH" type="Al electrolytic"
SYMBOL ind 736 -32 R0
SYMATTR InstName Ld1
SYMATTR Value {Ld}
SYMBOL ind 736 144 R0
SYMATTR InstName Ls1
SYMATTR Value {Ls}
SYMBOL ind 688 -64 R90
WINDOW 0 5 56 VBottom 2
WINDOW 3 32 56 VTop 2
SYMATTR InstName L5
SYMATTR Value 30n
SYMBOL cap 768 80 R0
SYMATTR InstName Cds1
SYMATTR Value {Coss-Crss}
SYMBOL cap 656 48 R0
SYMATTR InstName Cdg1
SYMATTR Value {Crss}
SYMBOL cap 656 112 R0
SYMATTR InstName Cgs1
SYMATTR Value {Ciss-Crss}
SYMBOL res -16 336 R90
WINDOW 0 0 56 VBottom 2
WINDOW 3 32 56 VTop 2
SYMATTR InstName Rg2
SYMATTR Value 4.7
SYMBOL EXTRA\\IRF\\NMOSFET\\irfp260n 720 432 R0
SYMATTR InstName Q2
SYMBOL ind 736 464 R0
SYMATTR InstName Ls2
SYMATTR Value {Ls}
SYMBOL cap 768 400 R0
SYMATTR InstName Cds2
SYMATTR Value {Coss-Crss}
SYMBOL cap 656 368 R0
SYMATTR InstName Cdg2
SYMATTR Value {Crss}
SYMBOL cap 656 432 R0
SYMATTR InstName Cgs2
SYMATTR Value {Ciss-Crss}
SYMBOL ind 736 288 R0
SYMATTR InstName Ld2
SYMATTR Value {Ld}
SYMBOL res -48 336 R0
SYMATTR InstName Rpd2
SYMATTR Value 10k
SYMBOL res -48 480 R0
SYMATTR InstName Rpd1
SYMATTR Value 10k
SYMBOL res 928 336 R0
SYMATTR InstName Rsn2
SYMATTR Value {Rsn}
SYMBOL diode 992 368 R0
SYMATTR InstName Dsn2
SYMATTR Value 1N4148
SYMBOL cap 960 464 R0
SYMATTR InstName Csn2
SYMATTR Value {Csn}
SYMBOL res 928 16 R0
SYMATTR InstName Rsn1
SYMATTR Value {Rsn}
SYMBOL diode 992 48 R0
SYMATTR InstName Dsn1
SYMATTR Value 1N4148
SYMBOL cap 960 144 R0
SYMATTR InstName Csn1
SYMATTR Value {Csn}
TEXT 888 -248 Left 2 !.tran 0 10m 0 startup
TEXT 888 -216 Left 2 !.param Ciss = 4057p\n.param Coss = 603p\n.param Crss = 161p\n.param Ld = 5n\n.param Ls = 13n
TEXT 1176 -216 Left 2 !.param Rsn = 10\n.param Csn = 100n
