Version 4
SHEET 1 880 680
WIRE 432 32 224 32
WIRE 528 32 432 32
WIRE 560 32 528 32
WIRE 432 48 432 32
WIRE 736 48 672 48
WIRE 560 64 544 64
WIRE 528 128 528 32
WIRE 560 128 528 128
WIRE 224 144 224 32
WIRE 736 144 672 144
WIRE 432 160 432 128
WIRE 544 160 544 64
WIRE 544 160 432 160
WIRE 560 160 544 160
WIRE 432 192 432 160
WIRE 224 272 224 176
WIRE 432 272 432 256
WIRE 432 272 224 272
WIRE 512 272 432 272
WIRE 224 304 224 272
FLAG 224 304 0
FLAG 224 32 PWM
FLAG 736 48 H
FLAG 736 144 L
SYMBOL MiniSyms4\\voltage- 224 160 R0
WINDOW 123 0 0 Left 0
WINDOW 39 0 0 Left 0
SYMATTR InstName V1
SYMATTR Value PULSE(0 12 10u 1n 1n 18.75u 62.5u)
SYMBOL Dig_Add\\74HC\\74hc08 608 80 R0
SYMATTR InstName U1
SYMBOL Dig_Add\\74HC\\74hc32 608 -16 R0
SYMATTR InstName U2
SYMBOL res 416 32 R0
SYMATTR InstName R1
SYMATTR Value 10
SYMBOL cap 416 192 R0
SYMATTR InstName C1
SYMATTR Value 100n
TEXT 236 334 Left 2 !.tran .5m
