Version 4
SHEET 1 880 680
WIRE 528 0 320 0
WIRE -688 48 -688 0
WIRE 320 48 320 0
WIRE -752 96 -800 96
WIRE 240 96 224 96
WIRE 272 96 240 96
WIRE -960 144 -992 144
WIRE -864 144 -960 144
WIRE -368 144 -688 144
WIRE -320 144 -368 144
WIRE 16 144 -192 144
WIRE -992 176 -992 144
WIRE -384 176 -416 176
WIRE -320 176 -384 176
WIRE -144 176 -192 176
WIRE -48 176 -64 176
WIRE 16 176 16 144
WIRE 528 176 528 0
WIRE -688 192 -688 144
WIRE 320 192 320 144
WIRE 416 192 320 192
WIRE -320 208 -336 208
WIRE -176 208 -192 208
WIRE -48 224 -48 176
WIRE 16 224 16 208
WIRE 16 224 -48 224
WIRE 320 224 320 192
WIRE -384 240 -416 240
WIRE -320 240 -384 240
WIRE -176 240 -192 240
WIRE 16 240 16 224
WIRE 240 272 224 272
WIRE 272 272 240 272
WIRE -992 288 -992 208
WIRE -800 288 -800 272
WIRE -800 288 -992 288
WIRE -688 288 -688 272
WIRE -688 288 -800 288
WIRE -992 304 -992 288
WIRE 320 352 320 320
WIRE 416 352 416 272
WIRE 416 352 320 352
WIRE 528 352 528 208
WIRE 528 352 416 352
WIRE 416 384 416 352
WIRE -352 448 -352 432
WIRE -352 496 -352 480
FLAG 144 96 GH
FLAG 144 272 GL
FLAG 320 192 HS
FLAG 416 384 0
FLAG -352 432 +15V
FLAG 16 240 0
FLAG -352 496 0
FLAG -176 208 0
FLAG -688 0 +15V
FLAG -384 176 HB
FLAG -384 240 HS
FLAG -176 240 GL
FLAG -336 208 GH
FLAG 16 144 PWM
FLAG -992 304 0
FLAG -368 144 vcc
FLAG -960 144 enable
SYMBOL MiniSyms4\\voltage- 16 192 R0
WINDOW 3 -17 -49 VRight 0
WINDOW 123 0 0 Left 0
WINDOW 39 7 17 Left 0
SYMATTR Value PULSE(0 5 1u 1n 1n 5u 10u)
SYMATTR InstName PWM2
SYMBOL MiniSyms4\\voltage- -352 464 R0
WINDOW 123 0 0 Left 0
WINDOW 39 11 39 Left 0
SYMATTR SpiceLine Rser=100m
SYMATTR InstName V1
SYMATTR Value 15V
SYMBOL EXTRA\\IRF\\NMOSFET\\IRFP4332PBF 288 96 R0
WINDOW 3 63 30 VLeft 0
SYMATTR InstName U2
SYMBOL EXTRA\\IRF\\NMOSFET\\IRFP4332PBF 288 272 R0
WINDOW 3 63 30 VLeft 0
SYMATTR InstName U3
SYMBOL res 400 176 R0
SYMATTR InstName R1
SYMATTR Value 10
SYMBOL MiniSyms4\\voltage- 528 192 R0
SYMATTR InstName V2
SYMATTR Value 30
SYMBOL cap -400 240 R180
WINDOW 0 24 56 Left 2
WINDOW 3 24 8 Left 2
SYMATTR InstName C1
SYMATTR Value 100n
SYMBOL AutoGenerated\\lm5104 -256 192 R0
SYMATTR InstName U1
SYMBOL res 240 80 R90
WINDOW 0 0 56 VBottom 2
WINDOW 3 32 56 VTop 2
SYMATTR InstName R3
SYMATTR Value 4.7
SYMBOL res 240 256 R90
WINDOW 0 0 56 VBottom 2
WINDOW 3 32 56 VTop 2
SYMATTR InstName R4
SYMATTR Value 4.7
SYMBOL res -48 160 R90
WINDOW 0 0 56 VBottom 2
WINDOW 3 32 56 VTop 2
SYMATTR InstName R2
SYMATTR Value 100k
SYMBOL MiniSyms4\\voltage- -992 192 M0
WINDOW 123 0 0 Left 0
WINDOW 39 0 0 Left 0
SYMATTR InstName V3
SYMATTR Value PULSE(0 5 200u 1e-9 1e-9 200u 400u 0)
SYMBOL pnp -752 144 M180
SYMATTR InstName Q2
SYMATTR Value BC857A
SYMBOL res -784 288 R180
WINDOW 0 36 76 Left 2
WINDOW 3 36 40 Left 2
SYMATTR InstName R6
SYMATTR Value 1k
SYMBOL res -704 176 R0
SYMATTR InstName R5
SYMATTR Value 1k
SYMBOL npn -864 96 R0
SYMATTR InstName Q1
SYMATTR Value BC847A
TEXT -408 304 Left 2 !.tran 0 10m 0
