Version 4
SHEET 1 1784 680
WIRE 416 80 272 80
WIRE 672 80 416 80
WIRE 784 80 672 80
WIRE 880 80 784 80
WIRE 928 80 880 80
WIRE 784 112 784 80
WIRE 880 144 880 80
WIRE 576 160 560 160
WIRE 672 160 656 160
WIRE 704 160 672 160
WIRE 560 176 560 160
WIRE 272 192 272 80
WIRE 416 208 416 80
WIRE 672 208 560 208
WIRE 784 208 784 192
WIRE 784 208 672 208
WIRE 880 208 784 208
WIRE 1328 208 880 208
WIRE 1440 208 1408 208
WIRE 1728 208 1440 208
WIRE 784 240 784 208
WIRE 1728 256 1728 208
WIRE 1440 272 1440 208
WIRE 576 288 560 288
WIRE 672 288 656 288
WIRE 704 288 672 288
WIRE 560 320 560 288
WIRE 880 336 880 208
WIRE 272 400 272 224
WIRE 416 400 416 272
WIRE 416 400 272 400
WIRE 560 400 560 352
WIRE 560 400 416 400
WIRE 576 400 560 400
WIRE 672 400 656 400
WIRE 784 400 784 336
WIRE 784 400 672 400
WIRE 880 400 784 400
WIRE 1440 400 1440 336
WIRE 1440 400 880 400
WIRE 1728 400 1728 336
WIRE 1728 400 1440 400
WIRE 272 416 272 400
FLAG 272 416 0
FLAG 672 400 LS
FLAG 672 288 LG
FLAG 672 160 HG
FLAG 672 80 HD
FLAG 672 208 HS
FLAG 1728 208 Out
FLAG 272 80 In
SYMBOL MiniSyms4\\voltage- 560 192 R0
WINDOW 3 -17 -49 VRight 0
WINDOW 123 0 0 Left 0
WINDOW 39 7 17 Left 0
SYMATTR Value PULSE(0 {Vdrv} 0 10n 10n {D/Fsw -dead} {1/Fsw})
SYMATTR SpiceLine Rser=.1 Cpar=50n
SYMATTR InstName PWM1
SYMBOL MiniSyms4\\voltage- 560 336 R0
WINDOW 3 -17 -49 VRight 0
WINDOW 123 0 0 Left 0
WINDOW 39 7 17 Left 0
SYMATTR Value PULSE(0 {Vdrv} {D/Fsw} 10n 10n {(1.0-D)/Fsw -dead} {1/Fsw})
SYMATTR SpiceLine Rser=.1 Cpar=50n
SYMATTR InstName PWM2
SYMBOL res 1712 240 R0
SYMATTR InstName Ro
SYMATTR Value 0.8
SYMBOL MiniSyms4\\voltage- 272 208 R0
WINDOW 3 22 1 Right 0
WINDOW 123 0 0 Left 0
WINDOW 39 7 17 Left 0
SYMATTR Value {Vin}
SYMATTR InstName Vin
SYMBOL res 672 144 R90
WINDOW 0 0 56 VBottom 2
WINDOW 3 32 56 VTop 2
SYMATTR InstName R1
SYMATTR Value 1
SYMBOL res 672 272 R90
WINDOW 0 0 56 VBottom 2
WINDOW 3 32 56 VTop 2
SYMATTR InstName R2
SYMATTR Value 1
SYMBOL cap 400 208 R0
SYMATTR InstName Ci
SYMATTR Value {4700u}
SYMBOL cap 1424 272 R0
SYMATTR InstName Co
SYMATTR Value {4*470u}
SYMBOL ind 1312 224 R270
WINDOW 0 32 56 VTop 2
WINDOW 3 5 56 VBottom 2
SYMATTR InstName Lo
SYMATTR Value 300u
SYMBOL EXTRA\\IRF\\NMOSFET\\IRFP4668 752 160 R0
SYMATTR InstName U1
SYMBOL EXTRA\\IRF\\NMOSFET\\IRFP4668 752 288 R0
SYMATTR InstName U2
SYMBOL res 672 384 R90
WINDOW 0 0 56 VBottom 2
WINDOW 3 32 56 VTop 2
SYMATTR InstName R3
SYMATTR Value 1p
SYMBOL diode 896 208 R180
WINDOW 0 24 64 Left 2
WINDOW 3 24 0 Left 2
SYMATTR InstName D1
SYMBOL diode 896 400 R180
WINDOW 0 24 64 Left 2
WINDOW 3 24 0 Left 2
SYMATTR InstName D2
TEXT 504 -208 Left 2 !.param Vin=50\n.param Vo = 12\n.param D = Vo/Vin\n.param Fsw = 32.0k\n.param Vdrv = 12\n.param dead = 0.1 / Fsw
TEXT 272 -16 Left 2 !.tran 40m startup
