Version 4
SHEET 1 880 680
WIRE 336 -64 336 -80
WIRE 592 -64 336 -64
WIRE 336 -32 336 -64
WIRE -64 -16 -368 -16
WIRE 272 16 240 16
WIRE 592 48 592 -64
WIRE -368 64 -368 -16
WIRE -64 64 -64 -16
WIRE 176 64 160 64
WIRE -192 80 -224 80
WIRE 336 80 336 64
WIRE 432 80 336 80
WIRE 336 96 336 80
WIRE 432 112 432 80
WIRE -224 128 -224 80
WIRE -192 128 -224 128
WIRE -192 160 -192 128
WIRE -368 208 -368 144
WIRE -288 208 -368 208
WIRE -272 208 -288 208
WIRE -144 208 -176 208
WIRE -64 208 -64 144
WIRE -64 208 -144 208
WIRE 240 208 240 192
WIRE 336 208 336 176
WIRE 336 208 240 208
WIRE 432 208 432 176
WIRE 432 208 336 208
WIRE 592 208 592 112
WIRE 592 208 432 208
WIRE -368 240 -368 208
WIRE 336 240 336 208
WIRE -368 416 -368 400
WIRE -240 416 -240 400
WIRE -368 464 -368 448
WIRE -240 464 -240 448
FLAG -288 208 d
FLAG -368 240 0
FLAG -368 400 enable
FLAG -368 464 0
FLAG 336 -80 +15V
FLAG 160 64 enable
FLAG 336 240 0
FLAG -240 400 +15V
FLAG -240 464 0
FLAG 432 80 gate
FLAG -192 80 gate
FLAG -144 208 s
SYMBOL res -80 48 R0
SYMATTR InstName Ro
SYMATTR Value {Ro}
SYMBOL voltage -368 48 R0
SYMATTR InstName Vo
SYMATTR Value {Vo}
SYMBOL MiniSyms4\\voltage- -368 432 M0
WINDOW 123 0 0 Left 0
WINDOW 39 0 0 Left 0
SYMATTR InstName Enable
SYMATTR Value PULSE(0 5 200u 1e-9 1e-9 200u 400u 0)
SYMBOL pnp 272 64 M180
SYMATTR InstName Q1
SYMATTR Value BC857A
SYMBOL res 320 80 R0
SYMATTR InstName R2
SYMATTR Value 10k
SYMBOL MiniSyms4\\voltage- -240 432 R0
WINDOW 123 0 0 Left 0
WINDOW 39 11 39 Left 0
SYMATTR SpiceLine Rser=100m
SYMATTR InstName V1
SYMATTR Value 15V
SYMBOL res 256 208 R180
WINDOW 0 36 76 Left 2
WINDOW 3 36 40 Left 2
SYMATTR InstName R3
SYMATTR Value 1k
SYMBOL npn 176 16 R0
SYMATTR InstName Q2
SYMATTR Value BC847A
SYMBOL zener 416 176 M180
WINDOW 0 24 64 Left 2
WINDOW 3 24 0 Left 2
SYMATTR InstName D1
SYMATTR Value BZX384B15
SYMATTR Description Diode
SYMATTR Type diode
SYMBOL EXTRA\\IRF\\NMOSFET\\irfp260n -224 176 M90
SYMATTR InstName U1
SYMBOL cap 576 48 R0
SYMATTR InstName C1
SYMATTR Value 1u
TEXT -40 384 Left 2 !.param Vo = 15\n.param Io = 10\n.param Ro = Vo/Io
TEXT -40 472 Left 2 !.tran 0 1m 0 startup
