Version 4
SHEET 1 1036 1028
WIRE 128 16 -992 16
WIRE -992 80 -992 16
WIRE -992 240 -992 160
WIRE -624 336 -688 336
WIRE -96 336 -624 336
WIRE -96 368 -96 336
WIRE -160 416 -176 416
WIRE 128 416 128 16
WIRE 176 416 128 416
WIRE 416 432 240 432
WIRE -688 448 -688 336
WIRE -624 448 -624 336
WIRE -400 464 -448 464
WIRE -288 464 -400 464
WIRE -240 464 -288 464
WIRE -96 480 -96 464
WIRE 96 480 -96 480
WIRE 176 480 96 480
WIRE 416 480 416 432
WIRE -400 496 -400 464
WIRE -896 512 -896 496
WIRE -768 512 -768 496
WIRE -288 512 -288 464
WIRE -96 512 -96 480
WIRE 96 512 96 480
WIRE 176 512 128 512
WIRE -896 560 -896 544
WIRE -768 560 -768 544
WIRE -688 608 -688 512
WIRE -624 608 -624 512
WIRE -624 608 -688 608
WIRE -400 608 -400 560
WIRE -400 608 -624 608
WIRE -288 608 -288 592
WIRE -288 608 -400 608
WIRE -176 608 -176 592
WIRE -176 608 -288 608
WIRE -96 608 -96 592
WIRE -96 608 -176 608
WIRE 96 608 96 576
WIRE 96 608 -96 608
WIRE 128 608 128 512
WIRE 128 608 96 608
WIRE -96 640 -96 608
FLAG -992 240 0
FLAG -896 496 enable_relay
FLAG -896 560 0
FLAG -96 336 +18V
FLAG -448 464 enable_relay
FLAG -96 640 0
FLAG -768 496 +18V
FLAG -768 560 0
FLAG -992 16 vi
FLAG 416 560 0
SYMBOL voltage -992 64 M0
WINDOW 123 0 0 Left 0
WINDOW 39 24 124 Left 2
SYMATTR SpiceLine Rser=100m
SYMATTR InstName Vi
SYMATTR Value {Vi}
SYMBOL pnp -160 464 M180
SYMATTR InstName Q1
SYMATTR Value BC857A
SYMBOL res -112 496 R0
SYMATTR InstName R2
SYMATTR Value 1k
SYMBOL MiniSyms4\\voltage- -768 528 R0
WINDOW 123 0 0 Left 0
WINDOW 39 11 39 Left 0
SYMATTR SpiceLine Rser=100m
SYMATTR InstName V1
SYMATTR Value 18
SYMBOL res -160 608 R180
WINDOW 0 36 76 Left 2
WINDOW 3 36 40 Left 2
SYMATTR InstName R3
SYMATTR Value 1k
SYMBOL npn -240 416 R0
SYMATTR InstName Q2
SYMATTR Value BC847A
SYMBOL cap -640 448 R0
SYMATTR InstName C1
SYMATTR Value 100n
SYMBOL res -272 608 R180
WINDOW 0 36 76 Left 2
WINDOW 3 36 40 Left 2
SYMATTR InstName R1
SYMATTR Value 1k
SYMBOL cap -416 496 R0
SYMATTR InstName C2
SYMATTR Value 100n
SYMBOL MiniSyms4\\voltage- -896 528 M0
WINDOW 123 0 0 Left 0
WINDOW 39 0 0 Left 0
SYMATTR InstName V2
SYMATTR Value PULSE(0 5 200m 1e-9 1e-9 200m 400m 0)
SYMBOL EXTRA\\Relays\\rly_spdt0 208 432 R0
SYMATTR SpiceModel ""
SYMATTR InstName U5
SYMATTR SpiceLine VNOM=24  RCOIL=970  VON=0.625  VOFF=0.620 RON=0.1  ROFF=1G  COFF=5.7p  LSER=5n  CCOUP=5.7p
SYMATTR SpiceLine2 TON=1m TOFF=1m  LCOIL=330m CCOIL=50n
SYMBOL cap -704 448 R0
SYMATTR InstName C8
SYMATTR Value 10u
SYMBOL diode 112 576 R180
WINDOW 0 24 64 Left 2
WINDOW 3 24 0 Left 2
SYMATTR InstName D1
SYMATTR Value 1N4148
SYMBOL res 400 464 R0
SYMATTR InstName R5
SYMATTR Value 10
TEXT -952 688 Left 2 !.param Vi=15\n.param Vo = 15\n.param Ro = 81\n.param Io = Vo/Ro
TEXT -952 656 Left 2 !.tran 0 1 0 startup
TEXT -944 816 Left 2 !.include relay.lib
TEXT -960 840 Left 0 ;Parameters for RELAY\n-----------------\nNominal Voltage  VNOM=5  \nCoil Resistance   RCOIL=150\nContact Resistance  RON=0.1 \nOff Isolation  ROFF=1G\nSwitiching Time  TON=5m \nMinimum Coil Voltage On-Ratio  VON=0.7 \nMaximum Coil Voltage Off-Ratio  VOFF=0.3 \nCoil Inductance  LCOIL=0.15 \nCoil Capacitance CCOIL=1f \nContact Off Capacitance  COFF=1f \nContact Coupling Capacitance  CCOUP=1f\nContact Series Inductance  Lser=1p
