Version 4
SHEET 1 2752 724
WIRE 1472 -672 1344 -672
WIRE 1344 -656 1344 -672
WIRE 1472 -656 1472 -672
WIRE 1344 -560 1344 -576
WIRE 1472 -560 1472 -576
WIRE 1472 -560 1344 -560
WIRE 1344 -544 1344 -560
WIRE 1472 -464 1344 -464
WIRE 1344 -448 1344 -464
WIRE 1472 -448 1472 -464
WIRE 1344 -352 1344 -368
WIRE 1472 -352 1472 -368
WIRE 1472 -352 1344 -352
WIRE 1344 -336 1344 -352
WIRE 336 -128 288 -128
WIRE 384 -128 368 -128
WIRE 496 -128 480 -128
WIRE 544 -128 528 -128
WIRE 624 -128 544 -128
WIRE 640 -128 624 -128
WIRE 736 -128 720 -128
WIRE 912 -128 736 -128
WIRE 1088 -128 912 -128
WIRE 1136 -128 1088 -128
WIRE 1248 -128 1216 -128
WIRE 1424 -128 1248 -128
WIRE 384 -80 384 -128
WIRE 480 -80 480 -128
WIRE 544 -80 544 -128
WIRE 624 -64 624 -128
WIRE 736 -64 736 -128
WIRE 912 -32 912 -128
WIRE 992 -32 992 -48
WIRE -352 -16 -352 -64
WIRE -304 -16 -352 -16
WIRE 432 -16 432 -48
WIRE 912 16 912 0
WIRE 912 16 864 16
WIRE 912 32 912 16
WIRE 1248 32 1248 -128
WIRE 1424 32 1424 -128
WIRE 288 48 288 -128
WIRE 1088 48 1088 -128
WIRE 624 64 624 0
WIRE 640 64 624 64
WIRE 736 64 736 0
WIRE 736 64 720 64
WIRE 912 112 864 112
WIRE 992 112 992 48
WIRE 624 128 624 64
WIRE 736 128 736 64
WIRE 912 128 912 112
WIRE -352 144 -352 -16
WIRE -320 144 -352 144
WIRE -64 144 -64 96
WIRE -64 144 -192 144
WIRE 64 144 -64 144
WIRE -576 176 -576 160
WIRE -384 176 -416 176
WIRE -320 176 -384 176
WIRE -112 176 -192 176
WIRE -96 176 -112 176
WIRE 0 176 -16 176
WIRE 64 176 64 144
WIRE 912 176 912 160
WIRE 992 176 912 176
WIRE -320 208 -336 208
WIRE -176 208 -192 208
WIRE -576 224 -576 208
WIRE -384 240 -416 240
WIRE -320 240 -384 240
WIRE -176 240 -192 240
WIRE 0 240 0 176
WIRE 64 240 64 208
WIRE 64 240 0 240
WIRE 64 256 64 240
WIRE 288 256 288 80
WIRE 624 256 624 192
WIRE 624 256 288 256
WIRE 736 256 736 192
WIRE 736 256 624 256
WIRE 912 256 912 176
WIRE 912 256 736 256
WIRE 1088 256 1088 112
WIRE 1088 256 912 256
WIRE 1248 256 1248 96
WIRE 1248 256 1088 256
WIRE 1424 256 1424 112
WIRE 1424 256 1248 256
WIRE 1424 288 1424 256
FLAG 432 -16 GH
FLAG 832 64 GL
FLAG 544 -80 HS
FLAG 1424 288 0
FLAG -576 160 +15V
FLAG 64 256 0
FLAG -576 224 0
FLAG -352 -64 +15V
FLAG -384 176 HB
FLAG -384 240 HS
FLAG -176 240 GL
FLAG -336 208 GH
FLAG 64 144 PWM
FLAG -304 48 0
FLAG 864 112 M2_S
FLAG 864 16 M2_D
FLAG 480 -80 M1_S
FLAG 384 -80 M1_D
FLAG 1344 -544 0
FLAG -176 208 0
FLAG 1344 -336 0
SYMBOL MiniSyms4\\voltage- 64 192 R0
WINDOW 3 -17 -49 VRight 0
WINDOW 123 0 0 Left 0
WINDOW 39 7 17 Left 0
SYMATTR Value PULSE(0 5 1u 10n 10n 3.3u 10u)
SYMATTR InstName PWM2
SYMBOL MiniSyms4\\voltage- -576 192 R0
WINDOW 123 0 0 Left 0
WINDOW 39 7 17 Left 0
SYMATTR InstName V1
SYMATTR Value 15V
SYMBOL res 1408 16 R0
SYMATTR InstName Ro
SYMATTR Value 1.4
SYMBOL MiniSyms4\\voltage- 288 64 R0
WINDOW 123 0 0 Left 0
WINDOW 39 0 0 Left 0
SYMATTR InstName V2
SYMATTR Value 60
SYMBOL cap -400 240 R180
WINDOW 0 24 56 Left 2
WINDOW 3 24 8 Left 2
SYMATTR InstName C1
SYMATTR Value 100n
SYMBOL AutoGenerated\\lm5104 -256 192 R0
SYMATTR InstName U1
SYMBOL res 0 160 R90
WINDOW 0 60 60 VBottom 2
WINDOW 3 52 55 VTop 2
SYMATTR InstName R3
SYMATTR Value 820k
SYMBOL cap -320 -16 R0
SYMATTR InstName C2
SYMATTR Value 10u
SYMBOL EXTRA\\IRF\\NMOSFET\\irfp264n 880 64 R0
SYMATTR InstName M2
SYMBOL EXTRA\\IRF\\NMOSFET\\irfp264n 432 -96 R270
SYMATTR InstName M1
SYMBOL bi 1344 -656 R0
SYMATTR InstName M1_Losses
SYMATTR Value I=I(R5)*V(M1_D,M1_S)
SYMBOL MiniSyms4\\res- 352 -128 R270
WINDOW 3 -8 0 VBottom 2
WINDOW 0 8 0 VTop 2
SYMATTR Value 1u
SYMATTR InstName R5
SYMBOL MiniSyms4\\res- 912 -16 R0
SYMATTR Value 1u
SYMATTR InstName R6
SYMBOL MiniSyms4\\res- 512 -128 R270
WINDOW 3 -8 0 VBottom 2
WINDOW 0 8 0 VTop 2
SYMATTR Value 1u
SYMATTR InstName R7
SYMBOL MiniSyms4\\res- 912 144 R0
SYMATTR Value 1u
SYMATTR InstName R8
SYMBOL res 1456 -672 R0
SYMATTR InstName R9
SYMATTR Value 1
SYMBOL res -128 80 R0
WINDOW 0 -1 -29 Left 2
WINDOW 3 -9 -2 Left 2
SYMATTR InstName R4
SYMATTR Value 82k
SYMBOL bi 1344 -448 R0
SYMATTR InstName M2_Losses
SYMATTR Value I=I(R6)*V(M2_D,M2_S)
SYMBOL res 1456 -464 R0
SYMATTR InstName R2
SYMATTR Value 1
SYMBOL ind 1232 -144 R90
WINDOW 0 5 56 VBottom 2
WINDOW 3 32 56 VTop 2
SYMATTR InstName Lo
SYMATTR Value 10u
SYMBOL cap 1232 32 R0
SYMATTR InstName C3
SYMATTR Value 100u
SYMBOL ind 736 -144 R90
WINDOW 0 5 56 VBottom 2
WINDOW 3 32 56 VTop 2
SYMATTR InstName Lr
SYMATTR Value 10n
SYMBOL ind 736 48 R90
WINDOW 0 5 56 VBottom 2
WINDOW 3 32 56 VTop 2
SYMATTR InstName Lb
SYMATTR Value 4n
SYMBOL cap 720 -64 R0
SYMATTR InstName Cr
SYMATTR Value 2n
SYMBOL cap 640 128 M0
SYMATTR InstName Cb
SYMATTR Value 1n
SYMBOL diode 640 0 R180
WINDOW 0 24 64 Left 2
WINDOW 3 24 0 Left 2
SYMATTR InstName D1
SYMATTR Value B560C
SYMBOL schottky 720 192 M180
WINDOW 0 24 64 Left 2
WINDOW 3 24 0 Left 2
SYMATTR InstName D2
SYMATTR Value B560C
SYMATTR Description Diode
SYMATTR Type diode
SYMBOL res 976 -48 R0
SYMATTR InstName R1
SYMATTR Value 1
SYMBOL cap 976 112 R0
SYMATTR InstName C4
SYMATTR Value 47n
SYMBOL diode 1072 112 M180
WINDOW 0 24 64 Left 2
WINDOW 3 24 0 Left 2
SYMATTR InstName D3
SYMATTR Value B560C
TEXT -272 456 Left 2 !.tran 0 10m 0 startup
TEXT 744 416 Left 2 ;https://reader.elsevier.com/reader/sd/pii/S2090447914001592?token=5C7D5D8272EC0D4524F2DB2F1D9841BD79419BCF4D713D74B1EC8EE35B2BA6D1AD6EFB7BD80963C569F8953EECDDB3A8
